test_data/pfdelta/case14/n/raw/sample_1.json
{"network":{"bus":{"4":{"zone":1,"bus_i":4,"bus_type":1,"vmax":1.06,"source_id":["bus",4],"area":1,"vmin":0.94,"index":4,"va":0.0,"vm":1.0,"base_kv":1.0},"1":{"zone":1,"bus_i":1,"bus_type":3,"vmax":1.06,"source_id":["bus",1],"area":1,"vmin":0.94,"index":1,"va":0.0,"vm":1.0,"base_kv":1.0},"12":{"zone":1,"bus_i":12,"bus_type":1,"vmax":1.06,"source_id":["bus",12],"area":1,"vmin":0.94,"index":12,"va":0.0,"vm":1.0,"base_kv":1.0},"2":{"zone":1,"bus_i":2,"bus_type":2,"vmax":1.06,"source_id":["bus",2],"area":1,"vmin":0.94,"index":2,"va":0.0,"vm":1.0,"base_kv":1.0},"6":{"zone":1,"bus_i":6,"bus_type":2,"vmax":1.06,"source_id":["bus",6],"area":1,"vmin":0.94,"index":6,"va":0.0,"vm":1.0,"base_kv":1.0},"11":{"zone":1,"bus_i":11,"bus_type":1,"vmax":1.06,"source_id":["bus",11],"area":1,"vmin":0.94,"index":11,"va":0.0,"vm":1.0,"base_kv":1.0},"13":{"zone":1,"bus_i":13,"bus_type":1,"vmax":1.06,"source_id":["bus",13],"area":1,"vmin":0.94,"index":13,"va":0.0,"vm":1.0,"base_kv":1.0},"5":{"zone":1,"bus_i":5,"bus_type":1,"vmax":1.06,"source_id":["bus",5],"area":1,"vmin":0.94,"index":5,"va":0.0,"vm":1.0,"base_kv":1.0},"14":{"zone":1,"bus_i":14,"bus_type":1,"vmax":1.06,"source_id":["bus",14],"area":1,"vmin":0.94,"index":14,"va":0.0,"vm":1.0,"base_kv":1.0},"7":{"zone":1,"bus_i":7,"bus_type":1,"vmax":1.06,"source_id":["bus",7],"area":1,"vmin":0.94,"index":7,"va":0.0,"vm":1.0,"base_kv":1.0},"8":{"zone":1,"bus_i":8,"bus_type":2,"vmax":1.06,"source_id":["bus",8],"area":1,"vmin":0.94,"index":8,"va":0.0,"vm":1.0,"base_kv":1.0},"10":{"zone":1,"bus_i":10,"bus_type":1,"vmax":1.06,"source_id":["bus",10],"area":1,"vmin":0.94,"index":10,"va":0.0,"vm":1.0,"base_kv":1.0},"9":{"zone":1,"bus_i":9,"bus_type":1,"vmax":1.06,"source_id":["bus",9],"area":1,"vmin":0.94,"index":9,"va":0.0,"vm":1.0,"base_kv":1.0},"3":{"zone":1,"bus_i":3,"bus_type":2,"vmax":1.06,"source_id":["bus",3],"area":1,"vmin":0.94,"index":3,"va":0.0,"vm":1.0,"base_kv":1.0}},"source_type":"matpower","name":"pglib_opf_case14_ieee","dcline":{},"source_version":"2","gen":{"4":{"pg":0.0,"model":2,"shutdown":0.0,"startup":0.0,"qg":0.09,"gen_bus":6,"pmax":0.0,"vg":1.0,"mbase":100.0,"source_id":["gen",4],"index":4,"cost":[],"qmax":0.24,"gen_status":1,"qmin":-0.06,"pmin":0.0,"ncost":0},"1":{"pg":1.7,"model":2,"shutdown":0.0,"startup":0.0,"qg":0.05,"gen_bus":1,"pmax":3.4,"vg":1.0,"mbase":100.0,"source_id":["gen",1],"index":1,"cost":[],"qmax":0.1,"gen_status":1,"qmin":0.0,"pmin":0.0,"ncost":2},"5":{"pg":0.0,"model":2,"shutdown":0.0,"startup":0.0,"qg":0.09,"gen_bus":8,"pmax":0.0,"vg":1.0,"mbase":100.0,"source_id":["gen",5],"index":5,"cost":[2326.9494,0.0],"qmax":0.24,"gen_status":1,"qmin":-0.06,"pmin":0.0,"ncost":0},"2":{"pg":0.295,"model":2,"shutdown":0.0,"startup":0.0,"qg":0.0,"gen_bus":2,"pmax":0.59,"vg":1.0,"mbase":100.0,"source_id":["gen",2],"index":2,"cost":[],"qmax":0.3,"gen_status":1,"qmin":-0.3,"pmin":0.0,"ncost":2},"3":{"pg":0.0,"model":2,"shutdown":0.0,"startup":0.0,"qg":0.2,"gen_bus":3,"pmax":0.0,"vg":1.0,"mbase":100.0,"source_id":["gen",3],"index":3,"cost":[792.0951,0.0],"qmax":0.4,"gen_status":1,"qmin":0.0,"pmin":0.0,"ncost":0}},"branch":{"4":{"br_r":0.05811,"rate_a":1.58,"shift":0.0,"rate_b":1.58,"br_x":0.17632,"rate_c":1.58,"g_to":0.0,"g_fr":0.0,"source_id":["branch",4],"b_fr":0.017,"f_bus":2,"br_status":1,"t_bus":4,"b_to":0.017,"index":4,"angmin":-0.5235987755982988,"angmax":0.5235987755982988,"transformer":false,"tap":1.0},"1":{"br_r":0.01938,"rate_a":4.72,"shift":0.0,"rate_b":4.72,"br_x":0.05917,"rate_c":4.72,"g_to":0.0,"g_fr":0.0,"source_id":["branch",1],"b_fr":0.0264,"f_bus":1,"br_status":1,"t_bus":2,"b_to":0.0264,"index":1,"angmin":-0.5235987755982988,"angmax":0.5235987755982988,"transformer":false,"tap":1.0},"12":{"br_r":0.12291,"rate_a":1.04,"shift":0.0,"rate_b":1.04,"br_x":0.25581,"rate_c":1.04,"g_to":0.0,"g_fr":0.0,"source_id":["branch",12],"b_fr":0.0,"f_bus":6,"br_status":1,"t_bus":12,"b_to":0.0,"index":12,"angmin":-0.5235987755982988,"angmax":0.5235987755982988,"transformer":false,"tap":1.0},"20":{"br_r":0.17093,"rate_a":0.76,"shift":0.0,"rate_b":0.76,"br_x":0.34802,"rate_c":0.76,"g_to":0.0,"g_fr":0.0,"source_id":["branch",20],"b_fr":0.0,"f_bus":13,"br_status":1,"t_bus":14,"b_to":0.0,"index":20,"angmin":-0.5235987755982988,"angmax":0.5235987755982988,"transformer":false,"tap":1.0},"2":{"br_r":0.05403,"rate_a":1.28,"shift":0.0,"rate_b":1.28,"br_x":0.22304,"rate_c":1.28,"g_to":0.0,"g_fr":0.0,"source_id":["branch",2],"b_fr":0.0246,"f_bus":1,"br_status":1,"t_bus":5,"b_to":0.0246,"index":2,"angmin":-0.5235987755982988,"angmax":0.5235987755982988,"transformer":false,"tap":1.0},"6":{"br_r":0.06701,"rate_a":1.6,"shift":0.0,"rate_b":1.6,"br_x":0.17103,"rate_c":1.6,"g_to":0.0,"g_fr":0.0,"source_id":["branch",6],"b_fr":0.0064,"f_bus":3,"br_status":1,"t_bus":4,"b_to":0.0064,"index":6,"angmin":-0.5235987755982988,"angmax":0.5235987755982988,"transformer":false,"tap":1.0},"11":{"br_r":0.09498,"rate_a":1.34,"shift":0.0,"rate_b":1.34,"br_x":0.1989,"rate_c":1.34,"g_to":0.0,"g_fr":0.0,"source_id":["branch",11],"b_fr":0.0,"f_bus":6,"br_status":1,"t_bus":11,"b_to":0.0,"index":11,"angmin":-0.5235987755982988,"angmax":0.5235987755982988,"transformer":false,"tap":1.0},"13":{"br_r":0.06615,"rate_a":2.01,"shift":0.0,"rate_b":2.01,"br_x":0.13027,"rate_c":2.01,"g_to":0.0,"g_fr":0.0,"source_id":["branch",13],"b_fr":0.0,"f_bus":6,"br_status":1,"t_bus":13,"b_to":0.0,"index":13,"angmin":-0.5235987755982988,"angmax":0.5235987755982988,"transformer":false,"tap":1.0},"5":{"br_r":0.05695,"rate_a":1.61,"shift":0.0,"rate_b":1.61,"br_x":0.17388,"rate_c":1.61,"g_to":0.0,"g_fr":0.0,"source_id":["branch",5],"b_fr":0.0173,"f_bus":2,"br_status":1,"t_bus":5,"b_to":0.0173,"index":5,"angmin":-0.5235987755982988,"angmax":0.5235987755982988,"transformer":false,"tap":1.0},"15":{"br_r":0.0,"rate_a":2.67,"shift":0.0,"rate_b":2.67,"br_x":0.11001,"rate_c":2.67,"g_to":0.0,"g_fr":0.0,"source_id":["branch",15],"b_fr":0.0,"f_bus":7,"br_status":1,"t_bus":9,"b_to":0.0,"index":15,"angmin":-0.5235987755982988,"angmax":0.5235987755982988,"transformer":false,"tap":1.0},"16":{"br_r":0.03181,"rate_a":3.25,"shift":0.0,"rate_b":3.25,"br_x":0.0845,"rate_c":3.25,"g_to":0.0,"g_fr":0.0,"source_id":["branch",16],"b_fr":0.0,"f_bus":9,"br_status":1,"t_bus":10,"b_to":0.0,"index":16,"angmin":-0.5235987755982988,"angmax":0.5235987755982988,"transformer":false,"tap":1.0},"14":{"br_r":0.0,"rate_a":1.67,"shift":0.0,"rate_b":1.67,"br_x":0.17615,"rate_c":1.67,"g_to":0.0,"g_fr":0.0,"source_id":["branch",14],"b_fr":0.0,"f_bus":7,"br_status":1,"t_bus":8,"b_to":0.0,"index":14,"angmin":-0.5235987755982988,"angmax":0.5235987755982988,"transformer":false,"tap":1.0},"7":{"br_r":0.01335,"rate_a":6.64,"shift":0.0,"rate_b":6.64,"br_x":0.04211,"rate_c":6.64,"g_to":0.0,"g_fr":0.0,"source_id":["branch",7],"b_fr":0.0,"f_bus":4,"br_status":1,"t_bus":5,"b_to":0.0,"index":7,"angmin":-0.5235987755982988,"angmax":0.5235987755982988,"transformer":false,"tap":1.0},"8":{"br_r":0.0,"rate_a":1.41,"shift":0.0,"rate_b":1.41,"br_x":0.20912,"rate_c":1.41,"g_to":0.0,"g_fr":0.0,"source_id":["branch",8],"b_fr":0.0,"f_bus":4,"br_status":1,"t_bus":7,"b_to":0.0,"index":8,"angmin":-0.5235987755982988,"angmax":0.5235987755982988,"transformer":true,"tap":0.978},"17":{"br_r":0.12711,"rate_a":0.99,"shift":0.0,"rate_b":0.99,"br_x":0.27038,"rate_c":0.99,"g_to":0.0,"g_fr":0.0,"source_id":["branch",17],"b_fr":0.0,"f_bus":9,"br_status":1,"t_bus":14,"b_to":0.0,"index":17,"angmin":-0.5235987755982988,"angmax":0.5235987755982988,"transformer":false,"tap":1.0},"10":{"br_r":0.0,"rate_a":1.17,"shift":0.0,"rate_b":1.17,"br_x":0.25202,"rate_c":1.17,"g_to":0.0,"g_fr":0.0,"source_id":["branch",10],"b_fr":0.0,"f_bus":5,"br_status":1,"t_bus":6,"b_to":0.0,"index":10,"angmin":-0.5235987755982988,"angmax":0.5235987755982988,"transformer":true,"tap":0.932},"19":{"br_r":0.22092,"rate_a":0.99,"shift":0.0,"rate_b":0.99,"br_x":0.19988,"rate_c":0.99,"g_to":0.0,"g_fr":0.0,"source_id":["branch",19],"b_fr":0.0,"f_bus":12,"br_status":1,"t_bus":13,"b_to":0.0,"index":19,"angmin":-0.5235987755982988,"angmax":0.5235987755982988,"transformer":false,"tap":1.0},"9":{"br_r":0.0,"rate_a":0.53,"shift":0.0,"rate_b":0.53,"br_x":0.55618,"rate_c":0.53,"g_to":0.0,"g_fr":0.0,"source_id":["branch",9],"b_fr":0.0,"f_bus":4,"br_status":1,"t_bus":9,"b_to":0.0,"index":9,"angmin":-0.5235987755982988,"angmax":0.5235987755982988,"transformer":true,"tap":0.969},"18":{"br_r":0.08205,"rate_a":1.41,"shift":0.0,"rate_b":1.41,"br_x":0.19207,"rate_c":1.41,"g_to":0.0,"g_fr":0.0,"source_id":["branch",18],"b_fr":0.0,"f_bus":10,"br_status":1,"t_bus":11,"b_to":0.0,"index":18,"angmin":-0.5235987755982988,"angmax":0.5235987755982988,"transformer":false,"tap":1.0},"3":{"br_r":0.04699,"rate_a":1.45,"shift":0.0,"rate_b":1.45,"br_x":0.19797,"rate_c":1.45,"g_to":0.0,"g_fr":0.0,"source_id":["branch",3],"b_fr":0.0219,"f_bus":2,"br_status":1,"t_bus":3,"b_to":0.0219,"index":3,"angmin":-0.5235987755982988,"angmax":0.5235987755982988,"transformer":false,"tap":1.0}},"storage":{},"switch":{},"baseMVA":100.0,"per_unit":true,"shunt":{"1":{"source_id":["bus",9],"shunt_bus":9,"status":1,"gs":0.0,"bs":0.19,"index":1}},"load":{"4":{"source_id":["bus",5],"load_bus":5,"status":1,"qd":0.2857221745129162,"pd":0.5155910307190131,"index":4},"1":{"source_id":["bus",2],"load_bus":2,"status":1,"qd":0.1873257895979368,"pd":0.3172057256864026,"index":1},"2":{"source_id":["bus",3],"load_bus":3,"status":1,"qd":0.13540264683975092,"pd":0.28561310615053803,"index":2},"6":{"source_id":["bus",9],"load_bus":9,"status":1,"qd":0.1259981074606903,"pd":0.21534379260731823,"index":6},"11":{"source_id":["bus",14],"load_bus":14,"status":1,"qd":0.18899018973191495,"pd":0.2528278194230881,"index":11},"5":{"source_id":["bus",6],"load_bus":6,"status":1,"qd":0.009359970482483607,"pd":0.23249640984961292,"index":5},"7":{"source_id":["bus",10],"load_bus":10,"status":1,"qd":0.1053679434602381,"pd":0.12845577876753697,"index":7},"8":{"source_id":["bus",11],"load_bus":11,"status":1,"qd":0.09439526388870126,"pd":0.6155877628918888,"index":8},"10":{"source_id":["bus",13],"load_bus":13,"status":1,"qd":0.17801696407902193,"pd":0.5472044653372948,"index":10},"9":{"source_id":["bus",12],"load_bus":12,"status":1,"qd":0.1246793906113704,"pd":0.3892065277396901,"index":9},"3":{"source_id":["bus",4],"load_bus":4,"status":1,"qd":0.2334048269442552,"pd":0.33667262106690043,"index":3}}},"solution":{"solve_time":0.5200560092926025,"optimizer":"Ipopt","termination_status":"LOCALLY_SOLVED","dual_status":"FEASIBLE_POINT","primal_status":"FEASIBLE_POINT","objective":0.0,"solution":{"baseMVA":100.0,"branch":{"4":{"qf":0.2859043132807281,"qt":-0.1428732487879528,"pt":-0.9007813141335362,"pf":0.9583216715716127},"1":{"qf":-0.7047219110306455,"qt":1.0991546932484895,"pt":-2.541690655888964,"pf":2.6884784492230023},"12":{"qf":0.1960334635680117,"qt":-0.15517853718024152,"pt":-0.3357168259205424,"pf":0.3553465472071256},"20":{"qf":0.1706641012785423,"qt":-0.15703553815522087,"pt":0.07652959101794556,"pf":-0.06983592314061281},"2":{"qf":0.3123944189705663,"qt":0.08186902669897941,"pt":-1.2667686124556279,"pf":1.3732102830332455},"6":{"qf":0.3860502196708855,"qt":-0.352042895691934,"pt":-0.3220782450557862,"pf":0.3400240538612535},"11":{"qf":0.30203388390852814,"qt":-0.2695789971316585,"pt":-0.26207693768462115,"pf":0.27757500277294234},"13":{"qf":0.37677509107852414,"qt":-0.31906672368090455,"pt":-0.5318361862651166,"pf":0.5611400052821781},"5":{"qf":0.3513314988420672,"qt":-0.21781981344145807,"pt":-0.8591469951418453,"pf":0.9133021522584351},"15":{"qf":0.12240403927999674,"qt":-0.06458978955681915,"pt":-0.6819420185827395,"pf":0.6819420185827395},"16":{"qf":-0.011077256743147863,"qt":0.0353044383810938,"pt":-0.4967094393082944,"pf":0.5058297546680941},"14":{"qf":-0.2719416453483732,"qt":0.2862033207899192,"pt":0.0,"pf":1.5407439555097887e-33},"7":{"qf":0.2542717800927779,"qt":-0.24934379135752646,"pt":0.18376661176660103,"pf":-0.18220430709750607},"8":{"qf":-0.03794812203419843,"qt":0.14953760606837646,"pt":-0.6819420185827395,"pf":0.6819420185827395},"17":{"qf":0.06994587599012718,"qt":-0.031954651576694075,"pt":-0.32935741044103367,"pf":0.3472176979445158},"19":{"qf":0.03049914656887112,"qt":-0.029614341676659706,"pt":0.054467644068434594,"pf":-0.05348970181914769},"10":{"qf":0.09957240358708891,"qt":0.44647437058195816,"pt":-1.426557965111859,"pf":1.426557965111859},"9":{"qf":0.045187659477052125,"qt":0.049361547944851425,"pt":-0.3864492266371886,"pf":0.3864492266371886},"18":{"qf":-0.1406723818413319,"qt":0.17518373324295725,"pt":-0.3535108252072677,"pf":0.3682536605407575},"3":{"qf":-0.09838985565279458,"qt":0.13584925714915785,"pt":-0.6256371600117915,"pf":0.6450666867515976}},"gen":{"4":{"qg":1.3306767796195056,"pg":0.0},"1":{"qg":-0.3923274920600792,"pg":4.061688732256248},"5":{"qg":0.2862033207899192,"pg":0.0},"2":{"qg":1.8253264393164268,"pg":0.29220558037908406},"3":{"qg":0.6573021236597943,"pg":0.0}},"multiinfrastructure":false,"multinetwork":false,"bus":{"4":{"va":-0.33464599674542084,"vm":0.9144160399932303},"1":{"va":0.0,"vm":1.0074523345828175},"12":{"va":-0.7654258282899111,"vm":0.9254599525489284},"2":{"va":-0.17004724033839314,"vm":1.0101204466632356},"6":{"va":-0.6942806813926609,"vm":1.0155088699133914},"11":{"va":-0.7223447953851883,"vm":0.9307568541421449},"13":{"va":-0.7452134852873258,"vm":0.9318318392256486},"5":{"va":-0.32127875844196974,"vm":0.905447488400121},"14":{"va":-0.6801586638951271,"vm":0.882769961781832},"7":{"va":-0.4949215346529752,"vm":0.9557224090719963},"8":{"va":-0.4949215346529752,"vm":1.0058442021398382},"10":{"va":-0.627152505252633,"vm":0.9299798995516976},"9":{"va":-0.5780908734256586,"vm":0.944899006293302},"3":{"va":-0.2999248732061546,"vm":1.0034675782724778}},"per_unit":true},"objective_lb":null}}